Version 4
SHEET 1 1824 2192
WIRE -2016 -1072 -2080 -1072
WIRE -1680 -1072 -1936 -1072
WIRE -2080 -1056 -2080 -1072
WIRE -2080 -960 -2080 -976
WIRE -1120 -944 -1168 -944
WIRE -1008 -944 -1040 -944
WIRE -1680 -896 -2080 -896
WIRE -608 -880 -608 -928
WIRE -448 -880 -608 -880
WIRE -1680 -864 -1952 -864
WIRE -1120 -848 -1168 -848
WIRE -1008 -848 -1008 -944
WIRE -1008 -848 -1040 -848
WIRE -832 -848 -1008 -848
WIRE -544 -848 -752 -848
WIRE -384 -848 -512 -848
WIRE -1680 -832 -1840 -832
WIRE -448 -816 -448 -880
WIRE -1680 -800 -1728 -800
WIRE -608 -800 -608 -880
WIRE -512 -800 -512 -848
WIRE -480 -800 -512 -800
WIRE -2080 -784 -2080 -896
WIRE -1952 -784 -1952 -864
WIRE -1840 -784 -1840 -832
WIRE -1728 -784 -1728 -800
WIRE -1008 -784 -1008 -848
WIRE -640 -784 -1008 -784
WIRE -384 -784 -384 -848
WIRE -384 -784 -416 -784
WIRE -304 -784 -384 -784
WIRE -544 -768 -544 -848
WIRE -544 -768 -576 -768
WIRE -480 -768 -544 -768
WIRE -640 -752 -672 -752
WIRE -1120 -736 -1168 -736
WIRE -1008 -736 -1008 -784
WIRE -1008 -736 -1040 -736
WIRE -864 -736 -880 -736
WIRE -672 -736 -672 -752
WIRE -672 -736 -784 -736
WIRE -448 -736 -448 -752
WIRE -1952 -704 -2080 -704
WIRE -1840 -704 -1952 -704
WIRE -1728 -704 -1840 -704
WIRE -1680 -704 -1728 -704
WIRE -1680 -688 -1680 -704
WIRE -672 -672 -672 -736
WIRE -1120 -640 -1168 -640
WIRE -1008 -640 -1008 -736
WIRE -1008 -640 -1040 -640
WIRE -672 -560 -672 -592
WIRE -608 -560 -608 -736
WIRE -608 -560 -672 -560
WIRE -608 -544 -608 -560
WIRE -1856 -352 -1952 -352
WIRE -1152 -256 -1200 -256
WIRE -1040 -256 -1072 -256
WIRE -1152 -160 -1200 -160
WIRE -1040 -160 -1040 -256
WIRE -1040 -160 -1072 -160
WIRE -864 -160 -1040 -160
WIRE -544 -160 -784 -160
WIRE -640 -112 -640 -240
WIRE -1040 -96 -1040 -160
WIRE -672 -96 -1040 -96
WIRE -544 -80 -544 -160
WIRE -544 -80 -608 -80
WIRE -672 -64 -704 -64
WIRE -1152 -48 -1200 -48
WIRE -1040 -48 -1040 -96
WIRE -1040 -48 -1072 -48
WIRE -896 -48 -912 -48
WIRE -704 -48 -704 -64
WIRE -704 -48 -816 -48
WIRE -704 16 -704 -48
WIRE -1152 48 -1200 48
WIRE -1040 48 -1040 -48
WIRE -1040 48 -1072 48
WIRE -704 128 -704 96
WIRE -640 128 -640 -48
WIRE -640 128 -704 128
WIRE -640 144 -640 128
FLAG -1680 -1072 5V
IOPIN -1680 -1072 In
FLAG -2080 -960 0
FLAG -608 -928 5V
IOPIN -608 -928 In
FLAG -304 -784 SpeedCmd_analog
IOPIN -304 -784 Out
FLAG -1680 -688 0
FLAG -1680 -896 b3
IOPIN -1680 -896 In
FLAG -1680 -864 b2
IOPIN -1680 -864 In
FLAG -1680 -832 b1
IOPIN -1680 -832 In
FLAG -1680 -800 b0
IOPIN -1680 -800 In
FLAG -1168 -640 b3
IOPIN -1168 -640 In
FLAG -1168 -736 b2
IOPIN -1168 -736 In
FLAG -1168 -848 b1
IOPIN -1168 -848 In
FLAG -1168 -944 b0
IOPIN -1168 -944 In
FLAG -1856 -352 SpeedCmd_analog
IOPIN -1856 -352 In
FLAG -1952 -272 0
FLAG -608 -544 0
FLAG -880 -736 5V
IOPIN -880 -736 In
FLAG -448 -736 0
FLAG -640 -240 5V
IOPIN -640 -240 In
FLAG -1200 48 b3
IOPIN -1200 48 In
FLAG -1200 -48 b2
IOPIN -1200 -48 In
FLAG -1200 -160 b1
IOPIN -1200 -160 In
FLAG -1200 -256 b0
IOPIN -1200 -256 In
FLAG -640 144 0
FLAG -912 -48 5V
IOPIN -912 -48 In
SYMBOL voltage -2080 -1072 R0
WINDOW 123 0 0 Left 0
WINDOW 39 0 0 Left 0
SYMATTR InstName V5
SYMATTR Value 5
SYMBOL res -2032 -1088 M90
WINDOW 0 -7 47 VBottom 2
WINDOW 3 29 54 VTop 2
SYMATTR InstName RSense5V
SYMATTR Value 1µ
SYMBOL voltage -1728 -800 R0
WINDOW 3 -3 125 VRight 2
WINDOW 123 0 0 Left 0
WINDOW 39 0 0 Left 0
WINDOW 0 -65 54 Left 2
SYMATTR Value PWL file=b0PWL.csv
SYMATTR InstName V1
SYMBOL voltage -1840 -800 R0
WINDOW 3 2 124 VRight 2
WINDOW 123 0 0 Left 0
WINDOW 39 0 0 Left 0
WINDOW 0 -66 54 Left 2
SYMATTR Value PWL file=b1PWL.csv
SYMATTR InstName V2
SYMBOL voltage -1952 -800 R0
WINDOW 3 -2 122 VRight 2
WINDOW 123 0 0 Left 0
WINDOW 39 0 0 Left 0
WINDOW 0 -62 53 Left 2
SYMATTR Value PWL file=b2PWL.csv
SYMATTR InstName V3
SYMBOL voltage -2080 -800 R0
WINDOW 3 6 124 VRight 2
WINDOW 123 0 0 Left 0
WINDOW 39 0 0 Left 0
WINDOW 0 -77 57 Left 2
SYMATTR Value PWL file=b3PWL.csv
SYMATTR InstName V4
SYMBOL res -1968 -368 R0
SYMATTR InstName R12
SYMATTR Value 100k
SYMBOL Opamps\\LTC6079 -608 -768 R0
SYMATTR InstName U1
SYMBOL res -1024 -656 R90
WINDOW 0 0 56 VBottom 2
WINDOW 3 32 56 VTop 2
SYMATTR InstName R1
SYMATTR Value R=Rbase
SYMBOL res -1024 -752 R90
WINDOW 0 -2 54 VBottom 2
WINDOW 3 32 56 VTop 2
SYMATTR InstName R2
SYMATTR Value R=2*Rbase
SYMBOL res -1024 -864 R90
WINDOW 0 0 56 VBottom 2
WINDOW 3 32 56 VTop 2
SYMATTR InstName R3
SYMATTR Value R=4*Rbase
SYMBOL res -1024 -960 R90
WINDOW 0 0 56 VBottom 2
WINDOW 3 36 58 VTop 2
SYMATTR InstName R4
SYMATTR Value R=8*Rbase
SYMBOL res -736 -864 R90
WINDOW 0 0 56 VBottom 2
WINDOW 3 32 56 VTop 2
SYMATTR InstName Rf
SYMATTR Value R=8/15*Rbase
SYMBOL res -656 -576 R180
WINDOW 0 36 76 Left 2
WINDOW 3 36 40 Left 2
SYMATTR InstName R6
SYMATTR Value R= 0.4925*Roff
SYMBOL res -880 -720 R270
WINDOW 0 32 56 VTop 2
WINDOW 3 0 56 VBottom 2
SYMATTR InstName R5
SYMATTR Value R=Roff
SYMBOL Opamps\\LTC6079 -448 -784 R0
SYMATTR InstName U2
SYMBOL Opamps\\LTC6079 -640 -80 R0
SYMATTR InstName U3
SYMBOL res -1056 32 R90
WINDOW 0 0 56 VBottom 2
WINDOW 3 32 56 VTop 2
SYMATTR InstName R9
SYMATTR Value R=Rbase
SYMBOL res -1056 -64 R90
WINDOW 0 -2 54 VBottom 2
WINDOW 3 32 56 VTop 2
SYMATTR InstName R10
SYMATTR Value R=2*Rbase
SYMBOL res -1056 -176 R90
WINDOW 0 0 56 VBottom 2
WINDOW 3 32 56 VTop 2
SYMATTR InstName R11
SYMATTR Value R=4*Rbase
SYMBOL res -1056 -272 R90
WINDOW 0 0 56 VBottom 2
WINDOW 3 36 58 VTop 2
SYMATTR InstName R13
SYMATTR Value R=8*Rbase
SYMBOL res -768 -176 R90
WINDOW 0 0 56 VBottom 2
WINDOW 3 32 56 VTop 2
SYMATTR InstName Rf1
SYMATTR Value R=8/15*Rbase
SYMBOL res -688 112 R180
WINDOW 0 36 76 Left 2
WINDOW 3 36 40 Left 2
SYMATTR InstName R14
SYMATTR Value R= 0.4925*Roff
SYMBOL res -912 -32 R270
WINDOW 0 32 56 VTop 2
WINDOW 3 0 56 VBottom 2
SYMATTR InstName R15
SYMATTR Value R=Roff
TEXT -2288 -1384 Left 2 ;Don't change these -- used for auto-assessments.\nYou may modify the input files (.txt and .csv) \n               while developing.\nFor submission: \n  * Only one label name per net name\n  * Use only 5V for power
TEXT -1552 -1400 Left 2 ;=============================\nREPLACE WITH YOUR DETAILS\nS. Muller.,  23575786\n=============================
TEXT -960 -1400 Left 2 ;=============================\nIncludes (don't fiddle with this!!)\n=============================
TEXT -1272 -1160 Left 2 ;=======================================\nYour circuit goes here, these are just placeholders.\n=======================================
TEXT -1392 -1448 Left 2 ;PLEASE WAIT FOR YOUR SIMULATION TO FINISH BEFORE SUBMITTING.
TEXT -2320 -1136 Left 2 !.tran 0 {transtop} 0
TEXT -2320 -1168 Left 2 !.include A3cfg.txt
TEXT -2312 -1032 Left 2 ;5V supply
TEXT -2352 -912 Left 2 ;4-bit 3.3V\ntorque command\n(input to your circuit)
TEXT -2344 -336 Left 2 ;Analogue speed command\n(output from your circuit)
TEXT -1112 -392 Left 2 !.param Rbase = 50k
TEXT -1104 -360 Left 2 !.param Roff = 100k
LINE Normal -1584 -1424 -1584 -240 2
LINE Normal -2368 -1424 -1584 -1424 2
LINE Normal -1584 -240 -2368 -240 2
LINE Normal -1584 -256 -1584 -256 2
LINE Normal -2368 -1424 -2368 -240 2
